* IRFB7430 Standard SPICE Model - Optimized for LTspice
* 40V, 1.3mOhm, 300nC Qg
.MODEL IRFB7430 NMOS(Level=1 VTO=3.919 KP=439.314 RS=0.00035 RD=0.0001 RG=2.914 
+ IS=7.18e-09 N=1.316 BV=40 IBV=0.00025 
+ CGSO=0.000125 CGDO=2.65e-08 
+ CJO=6.68e-09 VJ=0.5 M=0.59)